version 2
run General-0-20230728-16:26:41-58673
attr configname General
attr datetime 20230728-16:26:41
attr experiment General
attr inifile omnetpp.ini
attr iterationvars ""
attr iterationvarsf ""
attr measurement ""
attr network Network
attr processid 58673
attr repetition 0
attr replication #0
attr resultdir results
attr runnumber 0
attr seedset 0
param Network.cmodule[0].isMaster true
param Network.cmodule[1].isMaster false
param Network.cmodule[2].isMaster false

vector 0 Network.cmodule[0].app_l "" ETV
vector 1 Network.cmodule[1].app_l "" ETV
vector 2 Network.cmodule[2].app_l "" ETV
0	0	0	2
0	0	0	1
0	19	0.08	2
0	19	0.08	1
0	40	0.16	3
0	40	0.16	1
0	61	0.24	1
0	61	0.24	2
0	82	0.32	2
0	82	0.32	2
0	103	0.4	1
0	103	0.4	2
0	124	0.48	1
0	124	0.48	2
0	145	0.56	2
0	145	0.56	3
0	166	0.64	2
0	166	0.64	3
0	187	0.72	3
0	187	0.72	3
0	208	0.8	2
0	208	0.8	1
0	229	0.88	1
0	229	0.88	2
0	250	0.96	2
0	250	0.96	1
0	271	1.04	2
0	271	1.04	2
0	292	1.12	3
0	292	1.12	2
0	313	1.2	3
0	313	1.2	3
0	334	1.28	2
0	334	1.28	3
0	355	1.36	1
0	355	1.36	2
0	376	1.44	1
0	376	1.44	2
0	397	1.52	2
0	397	1.52	1
0	418	1.6	2
0	418	1.6	3
0	439	1.68	2
0	439	1.68	2
0	460	1.76	3
0	460	1.76	3
0	481	1.84	1
0	481	1.84	1
0	502	1.92	2
0	502	1.92	2
0	523	2	1
0	523	2	3
1	0	0	2
1	0	0	1
1	20	0.08	2
1	20	0.08	2
1	41	0.16	1
1	41	0.16	2
1	62	0.24	2
1	62	0.24	2
1	83	0.32	1
1	83	0.32	3
1	104	0.4	2
1	104	0.4	1
1	125	0.48	3
1	125	0.48	2
1	146	0.56	3
1	146	0.56	3
1	167	0.64	2
1	167	0.64	3
1	188	0.72	1
1	188	0.72	3
1	209	0.8	2
1	209	0.8	2
1	230	0.88	1
1	230	0.88	2
1	251	0.96	1
1	251	0.96	2
1	272	1.04	3
1	272	1.04	3
1	293	1.12	1
1	293	1.12	3
1	314	1.2	2
1	314	1.2	1
1	335	1.28	3
1	335	1.28	3
1	356	1.36	3
1	356	1.36	2
1	377	1.44	2
1	377	1.44	1
1	398	1.52	2
1	398	1.52	3
1	419	1.6	3
1	419	1.6	1
1	440	1.68	2
1	440	1.68	1
1	461	1.76	1
1	461	1.76	2
1	482	1.84	3
1	482	1.84	2
1	503	1.92	2
1	503	1.92	1
1	524	2	2
1	524	2	1
2	0	0	2
2	0	0	1
2	21	0.08	3
2	21	0.08	2
2	42	0.16	1
2	42	0.16	1
2	63	0.24	1
2	63	0.24	2
2	84	0.32	3
2	84	0.32	2
2	105	0.4	3
2	105	0.4	3
2	126	0.48	3
2	126	0.48	3
2	147	0.56	2
2	147	0.56	1
2	168	0.64	2
2	168	0.64	3
2	189	0.72	1
2	189	0.72	3
2	210	0.8	2
2	210	0.8	2
2	231	0.88	2
2	231	0.88	1
2	252	0.96	1
2	252	0.96	3
2	273	1.04	2
2	273	1.04	2
2	294	1.12	2
2	294	1.12	2
2	315	1.2	1
2	315	1.2	3
2	336	1.28	1
2	336	1.28	2
2	357	1.36	1
2	357	1.36	3
2	378	1.44	2
2	378	1.44	1
2	399	1.52	1
2	399	1.52	3
2	420	1.6	1
2	420	1.6	2
2	441	1.68	2
2	441	1.68	2
2	462	1.76	1
2	462	1.76	1
2	483	1.84	1
2	483	1.84	1
2	504	1.92	1
2	504	1.92	2
2	525	2	1
2	525	2	2

